@<TRIPOS>MOLECULE

546 545 1
SMALL
USER_CHARGES
@<TRIPOS>ATOM
1	C1    -2.6974     0.7718    -1.3224	C.2	1	noname	-0.0876
2	C2    -1.6553     1.6015    -1.1707	C.2	1	noname	-0.0762
3	C3    -0.2689     1.2222    -1.4179	C.3	1	noname	0.0744
4	C4     0.5238     1.1196    -0.0795	C.3	1	noname	0.0029
5	C5     1.9985     0.6341    -0.2074	C.3	1	noname	0.0593
6	C6     2.6880     0.4669     1.1819	C.3	1	noname	-0.0006
7	C7     4.1721    -0.0063     1.1053	C.3	1	noname	0.0590
8	C8     4.7819    -0.2690     2.5125	C.3	1	noname	-0.0006
9	C9     6.1521    -1.0064     2.5051	C.3	1	noname	0.0590
10	C10     6.6210    -1.3517     3.9480	C.3	1	noname	-0.0006
11	C11     7.9375    -2.1775     3.9951	C.3	1	noname	0.0590
12	C12     8.4321    -2.3916     5.4572	C.3	1	noname	-0.0006
13	C13     9.7296    -3.2440     5.5725	C.3	1	noname	0.0590
14	C14    10.2020    -3.4034     7.0497	C.3	1	noname	-0.0006
15	C15    11.4862    -4.2720     7.1957	C.3	1	noname	0.0590
16	C16    12.0208    -4.3413     8.6591	C.3	1	noname	-0.0006
17	C17    13.5117    -4.9767     8.6690	C.3	1	noname	0.0590
18	C18    14.0438    -5.2693    10.2004	C.3	1	noname	-0.0006
19	C19    15.4807    -5.9316    10.3245	C.3	1	noname	0.0590
20	C20    16.0101    -6.1079    11.7845	C.3	1	noname	-0.0006
21	C21    17.4811    -6.6324    11.8665	C.3	1	noname	0.0590
22	C22    17.9720    -6.9420    13.3190	C.3	1	noname	-0.0006
23	C23    19.3707    -7.6373    13.3675	C.3	1	noname	0.0590
24	C24    19.9359    -7.8520    14.8096	C.3	1	noname	-0.0006
25	C25    21.3597    -8.4960    14.8535	C.3	1	noname	0.0590
26	C26    21.8844    -8.7693    16.2998	C.3	1	noname	-0.0006
27	C27    23.2849    -9.4523    16.3737	C.3	1	noname	0.0590
28	C28    23.7880    -9.6775    17.8361	C.3	1	noname	-0.0006
29	C29    25.2209   -10.2911    17.9180	C.3	1	noname	0.0590
30	C30    25.7207   -10.5775    19.3692	C.3	1	noname	-0.0006
31	C31    27.1136   -11.2849    19.4035	C.3	1	noname	0.0590
32	C32    27.6781   -11.4736    20.8443	C.3	1	noname	-0.0006
33	C33    29.0941   -12.1239    20.8914	C.3	1	noname	0.0590
34	C34    29.5897   -12.3727    22.3468	C.3	1	noname	-0.0006
35	C35    30.9931   -13.0374    22.4230	C.3	1	noname	0.0590
36	C36    31.4892   -13.2777    23.8775	C.3	1	noname	-0.0006
37	C37    32.9179   -13.8933    23.9263	C.3	1	noname	0.0590
38	C38    33.4126   -14.1685    25.3722	C.3	1	noname	-0.0006
39	C39    34.7995   -14.8692    25.3944	C.3	1	noname	0.0590
40	C40    35.3557   -15.0281    26.8344	C.3	1	noname	-0.0006
41	C41    36.7528   -15.7046    26.8663	C.3	1	noname	0.0590
42	C42    37.2644   -15.9377    28.3142	C.3	1	noname	-0.0006
43	C43    38.6693   -16.5995    28.3662	C.3	1	noname	0.0590
44	C44    39.1490   -16.8542    29.8202	C.3	1	noname	-0.0006
45	C45    40.5869   -17.4331    29.8769	C.3	1	noname	0.0590
46	C46    41.0427   -17.7370    31.3269	C.3	1	noname	-0.0006
47	C47    42.4145   -18.4601    31.3542	C.3	1	noname	0.0590
48	C48    42.9757   -18.6000    32.7937	C.3	1	noname	-0.0006
49	C49    44.3749   -19.2703    32.8287	C.3	1	noname	0.0590
50	C50    44.8922   -19.4807    34.2782	C.3	1	noname	-0.0006
51	C51    46.2956   -20.1418    34.3273	C.3	1	noname	0.0590
52	C52    46.7748   -20.4110    35.7766	C.3	1	noname	-0.0006
53	C53    48.2206   -20.9712    35.8187	C.3	1	noname	0.0590
54	C54    48.6609   -21.3234    37.2610	C.3	1	noname	-0.0006
55	C55    50.0130   -22.0820    37.2729	C.3	1	noname	0.0590
56	C56    50.5923   -22.1862    38.7056	C.3	1	noname	-0.0006
57	C57    51.9992   -22.8318    38.7301	C.3	1	noname	0.0590
58	C58    52.5292   -22.9940    40.1770	C.3	1	noname	-0.0006
59	C59    53.9394   -23.6343    40.2284	C.3	1	noname	0.0590
60	C60    54.4168   -23.8392    41.6867	C.3	1	noname	-0.0006
61	C61    55.8696   -24.3704    41.7516	C.3	1	noname	0.0590
62	C62    56.2450   -24.8090    43.1874	C.3	1	noname	-0.0006
63	C63    57.5543   -25.6305    43.1929	C.3	1	noname	0.0590
64	C64    58.1046   -25.7969    44.6269	C.3	1	noname	-0.0006
65	C65    59.5027   -26.4552    44.6261	C.3	1	noname	0.0590
66	C66    59.9844   -26.6993    46.0736	C.3	1	noname	-0.0006
67	C67    61.3850   -27.3473    46.1170	C.3	1	noname	0.0590
68	C68    61.8811   -27.4807    47.5715	C.3	1	noname	-0.0006
69	C69    63.3679   -27.8920    47.6002	C.3	1	noname	0.0590
70	C70    63.8150   -28.2237    49.0381	C.3	1	noname	-0.0006
71	C71    65.1415   -29.0100    49.0258	C.3	1	noname	0.0590
72	C72    65.7124   -29.1022    50.4544	C.3	1	noname	-0.0006
73	C73    67.0997   -29.7688    50.4437	C.3	1	noname	0.0590
74	C74    67.5804   -29.9922    51.8868	C.3	1	noname	-0.0006
75	C75    68.9449   -30.7001    51.9089	C.3	1	noname	0.0590
76	C76    69.3844   -30.8995    53.3689	C.3	1	noname	-0.0006
77	C77    70.8113   -31.4682    53.4207	C.3	1	noname	0.0590
78	C78    71.1663   -31.8589    54.8648	C.3	1	noname	-0.0006
79	C79    72.4633   -32.6861    54.8599	C.3	1	noname	0.0590
80	C80    73.0351   -32.7550    56.2841	C.3	1	noname	-0.0006
81	O1     0.3079     2.1854    -2.3009	O.3	1	noname	-0.3888
82	O2     2.0462    -0.6300    -0.8700	O.3	1	noname	-0.3928
83	O3     4.9578     0.9726     0.4249	O.3	1	noname	-0.3928
84	O4     7.1686    -0.2234     1.8756	O.3	1	noname	-0.3928
85	O5     7.7303    -3.4510     3.3820	O.3	1	noname	-0.3928
86	O6    10.7697    -2.6521     4.7908	O.3	1	noname	-0.3928
87	O7    11.2072    -5.5903     6.7152	O.3	1	noname	-0.3928
88	O8    14.4174    -4.0468     8.0334	O.3	1	noname	-0.3928
89	O9    15.4681    -7.2025     9.6711	O.3	1	noname	-0.3928
90	O10    18.3661    -5.6669    11.2934	O.3	1	noname	-0.3928
91	O11    19.2553    -8.8957    12.7011	O.3	1	noname	-0.3928
92	O12    22.2720    -7.6509    14.1500	O.3	1	noname	-0.3928
93	O13    23.2576   -10.7052    15.6881	O.3	1	noname	-0.3928
94	O14    26.1574    -9.4082    17.2982	O.3	1	noname	-0.3928
95	O15    30.0213   -11.2999    20.1812	O.3	1	noname	-0.3928
96	O16    26.9966   -12.5560    18.7585	O.3	1	noname	-0.3928
97	O17    30.9913   -14.2772    21.7146	O.3	1	noname	-0.3928
98	O18    33.8547   -13.0254    23.2830	O.3	1	noname	-0.3928
99	O19    34.6863   -16.1459    24.7618	O.3	1	noname	-0.3928
100	O20    37.6878   -14.9163    26.1263	O.3	1	noname	-0.3928
101	O21    38.6753   -17.8300    27.6375	O.3	1	noname	-0.3928
102	O22    41.5123   -16.5218    29.2807	O.3	1	noname	-0.3928
103	O23    42.2672   -19.7461    30.7472	O.3	1	noname	-0.3928
104	O24    45.3040   -18.4878    32.0743	O.3	1	noname	-0.3928
105	O25    46.2997   -21.3707    33.5974	O.3	1	noname	-0.3928
106	O26    49.1447   -20.0198    35.2827	O.3	1	noname	-0.3928
107	O27    49.8183   -23.3818    36.7091	O.3	1	noname	-0.3928
108	O28    52.9063   -22.0449    37.9554	O.3	1	noname	-0.3928
109	O29    53.9493   -24.8893    39.5428	O.3	1	noname	-0.3928
110	O30    56.7830   -23.3642    41.3061	O.3	1	noname	-0.3928
111	O31    57.3094   -26.9114    42.6064	O.3	1	noname	-0.3928
112	O32    60.4250   -25.6212    43.9174	O.3	1	noname	-0.3928
113	O33    61.3627   -28.6391    45.5028	O.3	1	noname	-0.3928
114	O34    64.1803   -26.8365    47.0776	O.3	1	noname	-0.3928
115	O35    64.9066   -30.3150    48.4841	O.3	1	noname	-0.3928
116	O36    68.0267   -28.9567    49.7174	O.3	1	noname	-0.3928
117	O37    68.8866   -31.9672    51.2449	O.3	1	noname	-0.3928
118	O38    71.7544   -30.5031    52.9421	O.3	1	noname	-0.3928
119	O39    72.1900   -33.9952    54.3499	O.3	1	noname	-0.3928
120	C81    74.4579   -33.3331    56.2561	C.3	1	noname	0.0590
121	C82    74.9508   -33.5346    57.6986	C.3	1	noname	-0.0006
122	C83    76.3602   -34.1491    57.7147	C.3	1	noname	0.0590
123	C84    76.8210   -34.3265    59.1694	C.3	1	noname	-0.0006
124	C85    78.2704   -34.8345    59.2110	C.3	1	noname	0.0590
125	C86    78.6374   -35.2194    60.6546	C.3	1	noname	-0.0006
126	C87    79.9307   -36.0524    60.6466	C.3	1	noname	0.0590
127	C88    80.4987   -36.1575    62.0730	C.3	1	noname	-0.0006
128	C89    81.9021   -36.7903    62.0491	C.3	1	noname	0.0590
129	C90    82.3969   -37.0108    63.4908	C.3	1	noname	-0.0006
130	C91    83.8001   -37.6459    63.5186	C.3	1	noname	0.0590
131	C92    84.2634   -37.8382    64.9772	C.3	1	noname	-0.0006
132	C93    85.7170   -38.3514    65.0404	C.3	1	noname	0.0590
133	C94    86.1089   -38.7201    66.4898	C.3	1	noname	-0.0006
134	C95    87.4246   -39.5303    66.5038	C.3	1	noname	0.0590
135	C96    87.9988   -39.6486    67.9338	C.3	1	noname	-0.0006
136	C97    89.4044   -40.2936    67.9308	C.3	1	noname	0.0590
137	C98    89.9184   -40.5224    69.3727	C.3	1	noname	-0.0006
138	C99    91.3322   -41.1538    69.4133	C.3	1	noname	0.0590
139	C100    91.8107   -41.3666    70.8717	C.3	1	noname	-0.0006
140	C101    93.2632   -41.8986    70.9420	C.3	1	noname	0.0590
141	C102    93.6846   -42.2431    72.3935	C.3	1	noname	-0.0006
142	C103    95.0239   -43.0224    72.4186	C.3	1	noname	0.0590
143	C104    95.5879   -43.1684    73.8551	C.3	1	noname	-0.0006
144	C105    96.9876   -43.8365    73.8729	C.3	1	noname	0.0590
145	C106    97.5033   -44.0714    75.3173	C.3	1	noname	-0.0006
146	C107    98.9218   -44.6995    75.3617	C.3	1	noname	0.0590
147	C108    99.4089   -44.9334    76.8154	C.3	1	noname	-0.0006
148	C109   100.8568   -45.4850    76.8764	C.3	1	noname	0.0590
149	C110   101.3025   -45.7963    78.3294	C.3	1	noname	-0.0006
150	C111   102.6637   -46.5377    78.3594	C.3	1	noname	0.0590
151	C112   103.2104   -46.6957    79.8018	C.3	1	noname	-0.0006
152	C113   104.6035   -47.3728    79.8270	C.3	1	noname	0.0590
153	C114   105.1063   -47.6126    81.2732	C.3	1	noname	-0.0006
154	C115   106.5168   -48.2518    81.3089	C.3	1	noname	0.0590
155	C116   107.0013   -48.4963    82.7589	C.3	1	noname	-0.0006
156	C117   108.4410   -49.0659    82.8008	C.3	1	noname	0.0590
157	C118   108.8973   -49.3504    84.2538	C.3	1	noname	-0.0006
158	C119   110.2758   -50.0557    84.2878	C.3	1	noname	0.0590
159	C120   110.8069   -50.2322    85.7357	C.3	1	noname	-0.0006
160	C121   112.2065   -50.9046    85.7708	C.3	1	noname	0.0590
161	C122   112.7302   -51.1542    87.2142	C.3	1	noname	-0.0006
162	C123   114.1370   -51.8234    87.2624	C.3	1	noname	0.0590
163	C124   114.6489   -52.0638    88.7154	C.3	1	noname	-0.0006
164	C125   116.0907   -52.6527    88.7879	C.3	1	noname	0.0590
165	C126   116.5806   -52.9400    90.2420	C.3	1	noname	-0.0006
166	C127   117.9725   -53.6459    90.2918	C.3	1	noname	0.0590
167	C128   118.5363   -53.8569    91.7335	C.3	1	noname	-0.0006
168	C129   119.9622   -54.4972    91.7753	C.3	1	noname	0.0590
169	C130   120.4840   -54.7555    93.2250	C.3	1	noname	-0.0006
170	C131   121.8851   -55.4371    93.3085	C.3	1	noname	0.0590
171	C132   122.3866   -55.6441    94.7728	C.3	1	noname	-0.0006
172	C133   123.8202   -56.2508    94.8660	C.3	1	noname	0.0590
173	C134   124.2916   -56.5523    96.3233	C.3	1	noname	-0.0006
174	C135   125.6876   -57.2491    96.3746	C.3	1	noname	0.0590
175	C136   126.2432   -57.4609    97.8156	C.3	1	noname	-0.0006
176	C137   127.6808   -58.0665    97.8534	C.3	1	noname	0.0590
177	C138   128.1976   -58.3239    99.3028	C.3	1	noname	-0.0006
178	C139   129.5899   -59.0235    99.3690	C.3	1	noname	0.0590
179	C140   130.1356   -59.2252   100.8180	C.3	1	noname	-0.0006
180	C141   131.5723   -59.8347   100.8521	C.3	1	noname	0.0590
181	C142   132.0760   -60.2145   102.2775	C.3	1	noname	-0.0006
182	C143   133.4596   -60.9327   102.2491	C.3	1	noname	0.0590
183	C144   134.0811   -61.1503   103.6596	C.3	1	noname	-0.0006
184	C145   135.5119   -61.7705   103.6264	C.3	1	noname	0.0590
185	C146   136.0797   -62.0393   105.0527	C.3	1	noname	-0.0006
186	C147   137.4752   -62.7353   105.0722	C.3	1	noname	0.0590
187	C148   138.0089   -62.9535   106.5164	C.3	1	noname	-0.0006
188	C149   139.4244   -63.5968   106.5877	C.3	1	noname	0.0590
189	C150   139.8656   -63.8550   108.0578	C.3	1	noname	-0.0006
190	C151   141.2596   -64.5374   108.1986	C.3	1	noname	0.0590
191	C152   141.7092   -64.6425   109.6852	C.3	1	noname	-0.0006
192	C153   143.1227   -65.2628   109.8975	C.3	1	noname	0.0593
193	C154   143.4428   -65.4255   111.4085	C.3	1	noname	0.0029
194	C155   144.8277   -66.0682   111.7066	C.3	1	noname	0.0744
195	C156   145.0577   -66.0959   113.1440	C.2	1	noname	-0.0762
196	C157   145.8102   -65.1997   113.7963	C.2	1	noname	-0.0876
197	O40    75.3280   -32.4489    55.5405	O.3	1	noname	-0.3928
198	O41    76.3719   -35.4127    57.0418	O.3	1	noname	-0.3928
199	O42    79.1786   -33.8342    58.7389	O.3	1	noname	-0.3928
200	O43    79.6496   -37.3508    60.1129	O.3	1	noname	-0.3928
201	O44    82.8006   -35.9464    61.3222	O.3	1	noname	-0.3928
202	O45    83.8018   -38.9022    62.8347	O.3	1	noname	-0.3928
203	O46    86.6217   -37.3583    64.5469	O.3	1	noname	-0.3928
204	O47    87.1734   -40.8260    65.9525	O.3	1	noname	-0.3928
205	O48    90.3094   -39.4629    67.1991	O.3	1	noname	-0.3928
206	O49    91.3448   -42.4007    68.7130	O.3	1	noname	-0.3928
207	O50    94.1736   -40.9312    70.4129	O.3	1	noname	-0.3928
208	O51    94.8184   -44.3103    71.8321	O.3	1	noname	-0.3928
209	O52    97.9090   -43.0301    73.1350	O.3	1	noname	-0.3928
210	O53    98.9441   -45.9340    74.6415	O.3	1	noname	-0.3928
211	O54   102.5075   -47.8175    77.7401	O.3	1	noname	-0.3928
212	O55   101.7751   -44.5498    76.3047	O.3	1	noname	-0.3928
213	O56   105.5369   -46.5781    79.0914	O.3	1	noname	-0.3928
214	O57   106.5334   -49.4833    80.5828	O.3	1	noname	-0.3928
215	O58   109.3606   -48.1553    82.1911	O.3	1	noname	-0.3928
216	O59   110.1589   -51.3223    83.6345	O.3	1	noname	-0.3928
217	O60   113.1279   -50.0938    85.0388	O.3	1	noname	-0.3928
218	O61   114.1209   -53.0604    86.5461	O.3	1	noname	-0.3928
219	O62   117.0141   -51.7500    88.1761	O.3	1	noname	-0.3928
220	O63   117.8589   -54.9075    89.6313	O.3	1	noname	-0.3928
221	O64   120.8778   -53.6610    91.0646	O.3	1	noname	-0.3928
222	O65   121.8544   -56.6997    92.6410	O.3	1	noname	-0.3928
223	O66   124.7591   -55.3592    94.2621	O.3	1	noname	-0.3928
224	O67   125.5769   -58.5113    95.7142	O.3	1	noname	-0.3928
225	O68   128.5822   -57.2026    97.1578	O.3	1	noname	-0.3928
226	O69   129.5229   -60.2983    98.7266	O.3	1	noname	-0.3928
227	O70   132.4933   -58.9059   100.2767	O.3	1	noname	-0.3928
228	O71   133.2976   -62.1925   101.5958	O.3	1	noname	-0.3928
229	O72   136.3972   -60.9114   102.9037	O.3	1	noname	-0.3928
230	O73   137.3993   -63.9989   104.4102	O.3	1	noname	-0.3928
231	O74   140.3884   -62.7517   105.9588	O.3	1	noname	-0.3928
232	O75   141.2169   -65.8420   107.6179	O.3	1	noname	-0.3928
233	O76   144.1335   -64.4384   109.3095	O.3	1	noname	-0.3928
234	O77   144.8933   -67.4068   111.2117	O.3	1	noname	-0.3888
235	H1    -3.6155     1.0776    -1.1071	H	1	noname	0.0535
236	H2    -2.5783    -0.1629    -1.6331	H	1	noname	0.0535
237	H3    -1.8414     2.5262    -0.8570	H	1	noname	0.0596
238	H4    -0.2310     0.2520    -1.9228	H	1	noname	0.0646
239	H5    -0.0103     0.4277     0.5767	H	1	noname	0.0323
240	H6     0.5217     2.0966     0.4095	H	1	noname	0.0323
241	H7     2.5559     1.3653    -0.7997	H	1	noname	0.0602
242	H8     2.1185    -0.2627     1.7681	H	1	noname	0.0319
243	H9     2.6536     1.4169     1.7210	H	1	noname	0.0319
244	H10     4.2144    -0.9349     0.5317	H	1	noname	0.0602
245	H11     4.0749    -0.8751     3.0909	H	1	noname	0.0319
246	H12     4.9052     0.6882     3.0233	H	1	noname	0.0319
247	H13     6.0410    -1.9350     1.9418	H	1	noname	0.0602
248	H14     5.8416    -1.9271     4.4579	H	1	noname	0.0319
249	H15     6.7692    -0.4159     4.4963	H	1	noname	0.0319
250	H16     8.7082    -1.6442     3.4282	H	1	noname	0.0602
251	H17     7.6420    -2.8974     6.0219	H	1	noname	0.0319
252	H18     8.6046    -1.4152     5.9237	H	1	noname	0.0319
253	H19     9.5257    -4.2399     5.1661	H	1	noname	0.0602
254	H20    10.3909    -2.4062     7.4619	H	1	noname	0.0319
255	H21     9.3960    -3.8604     7.6321	H	1	noname	0.0319
256	H22    12.2601    -3.8326     6.5602	H	1	noname	0.0602
257	H23    11.9589    -3.2991     9.0771	H	1	noname	0.0319
258	H24    11.2483    -4.9141     9.2412	H	1	noname	0.0319
259	H25    13.5156    -5.9143     8.1121	H	1	noname	0.0602
260	H26    13.3715    -5.9457    10.7898	H	1	noname	0.0319
261	H27    14.0999    -4.3442    10.8329	H	1	noname	0.0319
262	H28    16.1769    -5.2935     9.7784	H	1	noname	0.0602
263	H29    15.3495    -6.8043    12.3088	H	1	noname	0.0319
264	H30    15.9545    -5.1436    12.3005	H	1	noname	0.0319
265	H31    17.5502    -7.5489    11.2733	H	1	noname	0.0602
266	H32    17.2465    -7.5954    13.8120	H	1	noname	0.0319
267	H33    18.0146    -6.0048    13.8804	H	1	noname	0.0319
268	H34    20.0796    -7.0209    12.8081	H	1	noname	0.0602
269	H35    19.9699    -6.8883    15.3280	H	1	noname	0.0319
270	H36    19.2433    -8.4982    15.3551	H	1	noname	0.0319
271	H37    21.3105    -9.4507    14.3257	H	1	noname	0.0602
272	H38    21.1645    -9.4093    16.8156	H	1	noname	0.0319
273	H39    21.9369    -7.8191    16.8376	H	1	noname	0.0319
274	H40    24.0027    -8.8079    15.8624	H	1	noname	0.0602
275	H41    23.0892   -10.3406    18.3549	H	1	noname	0.0319
276	H42    23.7935    -8.7194    18.3632	H	1	noname	0.0319
277	H43    25.2211   -11.2352    17.3669	H	1	noname	0.0602
278	H44    25.7852    -9.6296    19.9136	H	1	noname	0.0319
279	H45    24.9922   -11.2108    19.8872	H	1	noname	0.0319
280	H46    27.8249   -10.6786    18.8336	H	1	noname	0.0602
281	H47    27.7232   -10.4962    21.3348	H	1	noname	0.0319
282	H48    26.9802   -12.1014    21.4065	H	1	noname	0.0319
283	H49    29.0418   -13.0873    20.3802	H	1	noname	0.0602
284	H50    28.8677   -13.0147    22.8579	H	1	noname	0.0319
285	H51    29.6275   -11.4164    22.8748	H	1	noname	0.0319
286	H52    31.7083   -12.3732    21.9356	H	1	noname	0.0602
287	H53    30.7934   -13.9482    24.3915	H	1	noname	0.0319
288	H54    31.4989   -12.3258    24.4164	H	1	noname	0.0319
289	H55    32.9057   -14.8417    23.3823	H	1	noname	0.0602
290	H56    32.6869   -14.8025    25.8901	H	1	noname	0.0319
291	H57    33.4760   -13.2178    25.9094	H	1	noname	0.0319
292	H58    35.5064   -14.2676    24.8170	H	1	noname	0.0602
293	H59    35.4276   -14.0413    27.3013	H	1	noname	0.0319
294	H60    34.6545   -15.6297    27.4188	H	1	noname	0.0319
295	H61    36.6727   -16.6785    26.3787	H	1	noname	0.0602
296	H62    37.3107   -14.9763    28.8352	H	1	noname	0.0319
297	H63    36.5495   -16.5775    28.8411	H	1	noname	0.0319
298	H64    39.3794   -15.9213    27.8874	H	1	noname	0.0602
299	H65    38.4594   -17.5525    30.3040	H	1	noname	0.0319
300	H66    39.1235   -15.9124    30.3754	H	1	noname	0.0319
301	H67    40.6093   -18.3617    29.3016	H	1	noname	0.0602
302	H68    41.1081   -16.7977    31.8819	H	1	noname	0.0319
303	H69    40.3007   -18.3697    31.8210	H	1	noname	0.0319
304	H70    43.1295   -17.8848    30.7606	H	1	noname	0.0602
305	H71    43.0478   -17.6080    33.2496	H	1	noname	0.0319
306	H72    42.2781   -19.1971    33.3878	H	1	noname	0.0319
307	H73    44.2934   -20.2493    32.3508	H	1	noname	0.0602
308	H74    44.1800   -20.1114    34.8187	H	1	noname	0.0319
309	H75    44.9417   -18.5117    34.7845	H	1	noname	0.0319
310	H76    47.0055   -19.4613    33.8526	H	1	noname	0.0602
311	H77    46.0968   -21.1302    36.2464	H	1	noname	0.0319
312	H78    46.7381   -19.4824    36.3533	H	1	noname	0.0319
313	H79    48.2668   -21.8767    35.2071	H	1	noname	0.0602
314	H80    47.9024   -21.9478    37.7435	H	1	noname	0.0319
315	H81    48.7457   -20.3950    37.8344	H	1	noname	0.0319
316	H82    50.7280   -21.5435    36.6451	H	1	noname	0.0602
317	H83    50.6588   -21.1843    39.1397	H	1	noname	0.0319
318	H84    49.9080   -22.7789    39.3189	H	1	noname	0.0319
319	H85    51.9306   -23.8211    38.2733	H	1	noname	0.0602
320	H86    51.8316   -23.6182    40.7440	H	1	noname	0.0319
321	H87    52.5732   -22.0113    40.6565	H	1	noname	0.0319
322	H88    54.6440   -22.9676    39.7258	H	1	noname	0.0602
323	H89    53.7441   -24.5497    42.1776	H	1	noname	0.0319
324	H90    54.3647   -22.8910    42.2307	H	1	noname	0.0319
325	H91    55.9682   -25.2303    41.0840	H	1	noname	0.0602
326	H92    56.3495   -23.9154    43.8099	H	1	noname	0.0319
327	H93    55.4511   -25.4267    43.6174	H	1	noname	0.0319
328	H94    58.2994   -25.1142    42.5826	H	1	noname	0.0602
329	H95    58.1782   -24.8171    45.1101	H	1	noname	0.0319
330	H96    57.4083   -26.4110    45.2060	H	1	noname	0.0319
331	H97    59.4418   -27.4174    44.1111	H	1	noname	0.0602
332	H98    60.0096   -25.7427    46.6064	H	1	noname	0.0319
333	H99    59.2737   -27.3570    46.5842	H	1	noname	0.0319
334	H100    62.0875   -26.7166    45.5670	H	1	noname	0.0602
335	H101    61.2700   -28.2341    48.0785	H	1	noname	0.0319
336	H102    61.7668   -26.5319    48.1042	H	1	noname	0.0319
337	H103    63.5009   -28.7709    46.9635	H	1	noname	0.0602
338	H104    63.0608   -28.8311    49.5479	H	1	noname	0.0319
339	H105    63.9272   -27.2882    49.5948	H	1	noname	0.0319
340	H106    65.8670   -28.4986    48.3870	H	1	noname	0.0602
341	H107    65.8075   -28.0989    50.8834	H	1	noname	0.0319
342	H108    65.0203   -29.6788    51.0776	H	1	noname	0.0319
343	H109    67.0201   -30.7367    49.9452	H	1	noname	0.0602
344	H110    67.6642   -29.0244    52.3914	H	1	noname	0.0319
345	H111    66.8500   -30.6030    52.4278	H	1	noname	0.0319
346	H112    69.6801   -30.0728    51.3992	H	1	noname	0.0602
347	H113    68.6873   -31.5890    53.8574	H	1	noname	0.0319
348	H114    69.3623   -29.9465    53.9085	H	1	noname	0.0319
349	H115    70.8733   -32.3565    52.7844	H	1	noname	0.0602
350	H116    71.2804   -30.9421    55.4528	H	1	noname	0.0319
351	H117    70.3693   -32.4570    55.3185	H	1	noname	0.0319
352	H118    73.1944   -32.2093    54.2008	H	1	noname	0.0602
353	H119    73.0796   -31.7540    56.7253	H	1	noname	0.0319
354	H120    72.3783   -33.3758    56.9008	H	1	noname	0.0319
355	H121     1.1600     1.7942    -2.5825	H	1	noname	0.2108
356	H122     1.6719    -0.4810    -1.7633	H	1	noname	0.2104
357	H123     4.5396     1.0721    -0.4540	H	1	noname	0.2104
358	H124     6.9875    -0.2835     0.9163	H	1	noname	0.2104
359	H125     7.4682    -3.2525     2.4606	H	1	noname	0.2104
360	H126    10.4109    -2.5971     3.8810	H	1	noname	0.2104
361	H127    12.0653    -6.0592     6.7375	H	1	noname	0.2104
362	H128    15.3408    -4.4168     8.0019	H	1	noname	0.2104
363	H129    15.3205    -7.0052     8.7220	H	1	noname	0.2104
364	H130    18.1069    -5.5950    10.3503	H	1	noname	0.2104
365	H131    20.1742    -9.2062    12.5633	H	1	noname	0.2104
366	H132    23.1047    -8.1630    14.0786	H	1	noname	0.2104
367	H133    23.0624   -10.4866    14.7526	H	1	noname	0.2104
368	H134    25.8843    -9.3591    16.3596	H	1	noname	0.2104
369	H135    30.8579   -11.8106    20.1536	H	1	noname	0.2104
370	H136    27.9091   -12.9106    18.7129	H	1	noname	0.2104
371	H137    30.8565   -14.0350    20.7743	H	1	noname	0.2104
372	H138    33.6346   -13.0637    22.3289	H	1	noname	0.2104
373	H139    35.6053   -16.4722    24.6650	H	1	noname	0.2104
374	H140    38.4981   -15.4664    26.0654	H	1	noname	0.2104
375	H141    38.5307   -17.5772    26.7007	H	1	noname	0.2104
376	H142    41.3087   -16.5316    28.3219	H	1	noname	0.2104
377	H143    43.1768   -20.0918    30.6335	H	1	noname	0.2104
378	H144    46.1134   -19.0386    32.0094	H	1	noname	0.2104
379	H145    46.1324   -21.1180    32.6652	H	1	noname	0.2104
380	H146    48.9300   -19.9491    34.3297	H	1	noname	0.2104
381	H147    50.7148   -23.7661    36.6169	H	1	noname	0.2104
382	H148    53.7276   -22.5779    37.8996	H	1	noname	0.2104
383	H149    53.8043   -24.6670    38.5989	H	1	noname	0.2104
384	H150    56.5872   -23.2399    40.3535	H	1	noname	0.2104
385	H151    58.1927   -27.3234    42.5019	H	1	noname	0.2104
386	H152    61.2400   -26.1569    43.8182	H	1	noname	0.2104
387	H153    61.2006   -28.4720    44.5510	H	1	noname	0.2104
388	H154    65.0981   -27.1789    47.0913	H	1	noname	0.2104
389	H155    65.7935   -30.7055    48.3360	H	1	noname	0.2104
390	H156    68.8368   -29.5021    49.6326	H	1	noname	0.2104
391	H157    68.7423   -31.7619    50.2978	H	1	noname	0.2104
392	H158    71.5850   -30.4291    51.9798	H	1	noname	0.2104
393	H159    73.0635   -34.4239    54.2366	H	1	noname	0.2104
394	H160    74.4380   -34.2980    55.7435	H	1	noname	0.0602
395	H161    74.2611   -34.1987    58.2317	H	1	noname	0.0319
396	H162    74.9675   -32.5675    58.2134	H	1	noname	0.0319
397	H163    77.0506   -33.4735    57.2040	H	1	noname	0.0602
398	H164    76.1560   -35.0449    59.6599	H	1	noname	0.0319
399	H165    76.7604   -33.3753    59.7073	H	1	noname	0.0319
400	H166    78.3646   -35.7132    58.5665	H	1	noname	0.0602
401	H167    77.8449   -35.8143    61.1203	H	1	noname	0.0319
402	H168    78.7604   -34.3024    61.2396	H	1	noname	0.0319
403	H169    80.6671   -35.5669    59.9991	H	1	noname	0.0602
404	H170    80.5692   -35.1606    62.5217	H	1	noname	0.0319
405	H171    79.8174   -36.7615    62.6816	H	1	noname	0.0319
406	H172    81.8418   -37.7547    61.5391	H	1	noname	0.0602
407	H173    81.6938   -37.6651    64.0159	H	1	noname	0.0319
408	H174    82.4252   -36.0472    64.0097	H	1	noname	0.0319
409	H175    84.4983   -36.9763    63.0123	H	1	noname	0.0602
410	H176    83.5963   -38.5563    65.4650	H	1	noname	0.0319
411	H177    84.2001   -36.8888    65.5183	H	1	noname	0.0319
412	H178    85.8063   -39.2391    64.4075	H	1	noname	0.0602
413	H179    86.2176   -37.7966    67.0676	H	1	noname	0.0319
414	H180    85.3224   -39.3198    66.9592	H	1	noname	0.0319
415	H181    88.1555   -39.0247    65.8671	H	1	noname	0.0602
416	H182    88.0688   -38.6534    68.3834	H	1	noname	0.0319
417	H183    87.3146   -40.2492    68.5401	H	1	noname	0.0319
418	H184    89.3414   -41.2597    67.4252	H	1	noname	0.0602
419	H185    89.2191   -41.1806    69.8975	H	1	noname	0.0319
420	H186    89.9435   -39.5623    69.8974	H	1	noname	0.0319
421	H187    92.0289   -40.4759    68.9148	H	1	noname	0.0602
422	H188    91.1393   -42.0796    71.3603	H	1	noname	0.0319
423	H189    91.7556   -40.4192    71.4160	H	1	noname	0.0319
424	H190    93.3326   -42.8014    70.3298	H	1	noname	0.0602
425	H191    92.9139   -42.8530    72.8743	H	1	noname	0.0319
426	H192    93.7798   -41.3132    72.9623	H	1	noname	0.0319
427	H193    95.7535   -42.4834    71.8086	H	1	noname	0.0602
428	H194    95.6634   -42.1783    74.3149	H	1	noname	0.0319
429	H195    94.8905   -43.7666    74.4487	H	1	noname	0.0319
430	H196    96.9117   -44.8059    73.3753	H	1	noname	0.0602
431	H197    97.5241   -43.1147    75.8480	H	1	noname	0.0319
432	H198    96.8036   -44.7336    75.8362	H	1	noname	0.0319
433	H199    99.6170   -44.0116    74.8757	H	1	noname	0.0602
434	H200    98.7344   -45.6424    77.3048	H	1	noname	0.0319
435	H201    99.3687   -43.9898    77.3667	H	1	noname	0.0319
436	H202   100.9017   -46.4068    76.2905	H	1	noname	0.0602
437	H203   101.3808   -44.8566    78.8850	H	1	noname	0.0319
438	H204   100.5512   -46.4191    78.8246	H	1	noname	0.0319
439	H205   103.3871   -45.9634    77.7742	H	1	noname	0.0602
440	H206   103.2861   -45.7091    80.2694	H	1	noname	0.0319
441	H207   102.5057   -47.2958    80.3848	H	1	noname	0.0319
442	H208   104.5209   -48.3422    79.3312	H	1	noname	0.0602
443	H209   105.1373   -46.6582    81.8075	H	1	noname	0.0319
444	H210   104.4018   -48.2713    81.7899	H	1	noname	0.0319
445	H211   107.2152   -47.5632    80.8283	H	1	noname	0.0602
446	H212   106.3207   -49.1990    83.2501	H	1	noname	0.0319
447	H213   106.9773   -47.5535    83.3135	H	1	noname	0.0319
448	H214   108.4610   -50.0011    82.2337	H	1	noname	0.0602
449	H215   108.1600   -49.9865    84.7528	H	1	noname	0.0319
450	H216   108.9527   -48.4029    84.7979	H	1	noname	0.0319
451	H217   110.9893   -49.4475    83.7255	H	1	noname	0.0602
452	H218   110.8684   -49.2502    86.2150	H	1	noname	0.0319
453	H219   110.0958   -50.8415    86.3007	H	1	noname	0.0319
454	H220   112.1273   -51.8702    85.2666	H	1	noname	0.0602
455	H221   112.0131   -51.7928    87.7385	H	1	noname	0.0319
456	H222   112.7783   -50.1956    87.7392	H	1	noname	0.0319
457	H223   114.8409   -51.1573    86.7592	H	1	noname	0.0602
458	H224   113.9585   -52.7448    89.2210	H	1	noname	0.0319
459	H225   114.6353   -51.1120    89.2523	H	1	noname	0.0319
460	H226   116.1054   -53.5886    88.2237	H	1	noname	0.0602
461	H227   116.6399   -51.9918    90.7837	H	1	noname	0.0319
462	H228   115.8478   -53.5709    90.7529	H	1	noname	0.0319
463	H229   118.6855   -53.0347    89.7326	H	1	noname	0.0602
464	H230   118.5694   -52.8910    92.2463	H	1	noname	0.0319
465	H231   117.8460   -54.5033    92.2830	H	1	noname	0.0319
466	H232   119.9143   -55.4557    91.2538	H	1	noname	0.0602
467	H233   120.5339   -53.7981    93.7509	H	1	noname	0.0319
468	H234   119.7598   -55.3883    93.7453	H	1	noname	0.0319
469	H235   122.6042   -54.8004    92.7897	H	1	noname	0.0602
470	H236   121.6884   -56.3042    95.2952	H	1	noname	0.0319
471	H237   122.3864   -54.6807    95.2893	H	1	noname	0.0319
472	H238   123.8343   -57.1879    94.3037	H	1	noname	0.0602
473	H239   123.5585   -57.2008    96.8134	H	1	noname	0.0319
474	H240   124.3328   -55.6123    96.8823	H	1	noname	0.0319
475	H241   126.3995   -56.6325    95.8195	H	1	noname	0.0602
476	H242   126.2514   -56.5016    98.3397	H	1	noname	0.0319
477	H243   125.5642   -58.1306    98.3496	H	1	noname	0.0319
478	H244   127.6604   -59.0200    97.3233	H	1	noname	0.0602
479	H245   128.2598   -57.3654    99.8257	H	1	noname	0.0319
480	H246   127.4713   -58.9491    99.8289	H	1	noname	0.0319
481	H247   130.3048   -58.4063    98.8211	H	1	noname	0.0602
482	H248   129.4514   -59.8834   101.3623	H	1	noname	0.0319
483	H249   130.1546   -58.2600   101.3335	H	1	noname	0.0319
484	H250   131.5787   -60.7390   100.2382	H	1	noname	0.0602
485	H251   132.1447   -59.3056   102.8813	H	1	noname	0.0319
486	H252   131.3485   -60.8774   102.7533	H	1	noname	0.0319
487	H253   134.1549   -60.3311   101.6590	H	1	noname	0.0602
488	H254   134.1272   -60.1922   104.1856	H	1	noname	0.0319
489	H255   133.4239   -61.8139   104.2280	H	1	noname	0.0319
490	H256   135.4591   -62.7225   103.0922	H	1	noname	0.0602
491	H257   136.1506   -61.0845   105.5838	H	1	noname	0.0319
492	H258   135.3689   -62.6708   105.5944	H	1	noname	0.0319
493	H259   138.1859   -62.1077   104.5297	H	1	noname	0.0602
494	H260   137.3027   -63.5960   107.0491	H	1	noname	0.0319
495	H261   138.0405   -61.9903   107.0309	H	1	noname	0.0319
496	H262   139.4064   -64.5495   106.0541	H	1	noname	0.0602
497	H263   139.1217   -64.4887   108.5505	H	1	noname	0.0319
498	H264   139.8873   -62.8967   108.5852	H	1	noname	0.0319
499	H265   142.0011   -63.9463   107.6542	H	1	noname	0.0602
500	H266   140.9701   -65.2443   110.2252	H	1	noname	0.0319
501	H267   141.7067   -63.6412   110.1261	H	1	noname	0.0319
502	H268   143.1473   -66.2460   109.4220	H	1	noname	0.0602
503	H269   142.6609   -66.0312   111.8751	H	1	noname	0.0323
504	H270   143.4083   -64.4335   111.8686	H	1	noname	0.0323
505	H271   145.6142   -65.4961   111.2010	H	1	noname	0.0646
506	H272   144.6151   -66.8086   113.6798	H	1	noname	0.0596
507	H273   146.2588   -64.4537   113.3188	H	1	noname	0.0535
508	H274   145.9153   -65.2593   114.7817	H	1	noname	0.0535
509	H275    76.1770   -32.9304    55.4497	H	1	noname	0.2104
510	H276    76.2162   -35.2051    56.0965	H	1	noname	0.2104
511	H277    78.9880   -33.7336    57.7829	H	1	noname	0.2104
512	H278    80.5235   -37.7658    59.9579	H	1	noname	0.2104
513	H279    83.6221   -36.4705    61.2188	H	1	noname	0.2104
514	H280    83.6223   -38.6866    61.8952	H	1	noname	0.2104
515	H281    86.4099   -37.2590    63.5952	H	1	noname	0.2104
516	H282    88.0562   -41.2245    65.8085	H	1	noname	0.2104
517	H283    91.1321   -39.9889    67.1119	H	1	noname	0.2104
518	H284    91.1554   -42.1749    67.7775	H	1	noname	0.2104
519	H285    93.9603   -40.8641    69.4588	H	1	noname	0.2104
520	H286    95.7131   -44.6941    71.7220	H	1	noname	0.2104
521	H287    98.7244   -43.5700    73.0626	H	1	noname	0.2104
522	H288    98.7637   -45.6922    73.7081	H	1	noname	0.2104
523	H289   103.4178   -48.1495    77.5923	H	1	noname	0.2104
524	H290   101.5594   -44.5206    75.3495	H	1	noname	0.2104
525	H291   106.3343   -47.1411    78.9945	H	1	noname	0.2104
526	H292   106.3604   -49.2361    79.6499	H	1	noname	0.2104
527	H293   109.1246   -48.1398    81.2400	H	1	noname	0.2104
528	H294   111.0780   -51.6300    83.4928	H	1	noname	0.2104
529	H295   113.9336   -50.6427    84.9400	H	1	noname	0.2104
530	H296   113.9316   -52.8197    85.6135	H	1	noname	0.2104
531	H297   116.7516   -51.6992    87.2339	H	1	noname	0.2104
532	H298   118.7786   -55.2204    89.5056	H	1	noname	0.2104
533	H299   121.6939   -54.1954    90.9644	H	1	noname	0.2104
534	H300   121.6605   -56.4950    91.7017	H	1	noname	0.2104
535	H301   124.5382   -55.3544    93.3075	H	1	noname	0.2104
536	H302   126.4860   -58.8720    95.6798	H	1	noname	0.2104
537	H303   129.4188   -57.7077    97.0727	H	1	noname	0.2104
538	H304   129.3394   -60.1050    97.7836	H	1	noname	0.2104
539	H305   132.2232   -58.8152    99.3393	H	1	noname	0.2104
540	H306   134.2048   -62.5352   101.4554	H	1	noname	0.2104
541	H307   137.2322   -61.4184   102.8102	H	1	noname	0.2104
542	H308   137.2115   -63.7907   103.4709	H	1	noname	0.2104
543	H309   140.1435   -62.7352   105.0113	H	1	noname	0.2104
544	H310   141.0150   -65.6908   106.6712	H	1	noname	0.2104
545	H311   143.9500   -64.4293   108.3488	H	1	noname	0.2104
546	H312   144.9121   -67.3206   110.2362	H	1	noname	0.2108
@<TRIPOS>BOND
1	1	2	2
2	2	3	1
3	3	4	1
4	4	5	1
5	5	6	1
6	6	7	1
7	7	8	1
8	8	9	1
9	9	10	1
10	10	11	1
11	11	12	1
12	12	13	1
13	13	14	1
14	14	15	1
15	15	16	1
16	16	17	1
17	17	18	1
18	18	19	1
19	19	20	1
20	20	21	1
21	21	22	1
22	22	23	1
23	23	24	1
24	24	25	1
25	25	26	1
26	26	27	1
27	27	28	1
28	28	29	1
29	29	30	1
30	30	31	1
31	31	32	1
32	32	33	1
33	33	34	1
34	34	35	1
35	35	36	1
36	36	37	1
37	37	38	1
38	38	39	1
39	40	41	1
40	41	42	1
41	42	43	1
42	43	44	1
43	44	45	1
44	45	46	1
45	46	47	1
46	47	48	1
47	48	49	1
48	49	50	1
49	50	51	1
50	51	52	1
51	52	53	1
52	53	54	1
53	54	55	1
54	55	56	1
55	56	57	1
56	57	58	1
57	58	59	1
58	59	60	1
59	60	61	1
60	61	62	1
61	62	63	1
62	63	64	1
63	64	65	1
64	65	66	1
65	66	67	1
66	67	68	1
67	68	69	1
68	69	70	1
69	70	71	1
70	71	72	1
71	72	73	1
72	73	74	1
73	74	75	1
74	75	76	1
75	39	40	1
76	76	77	1
77	78	79	1
78	77	78	1
79	3	81	1
80	5	82	1
81	7	83	1
82	9	84	1
83	11	85	1
84	13	86	1
85	15	87	1
86	17	88	1
87	19	89	1
88	21	90	1
89	23	91	1
90	25	92	1
91	27	93	1
92	29	94	1
93	33	95	1
94	31	96	1
95	35	97	1
96	37	98	1
97	39	99	1
98	41	100	1
99	43	101	1
100	45	102	1
101	47	103	1
102	49	104	1
103	51	105	1
104	53	106	1
105	55	107	1
106	57	108	1
107	59	109	1
108	61	110	1
109	63	111	1
110	65	112	1
111	67	113	1
112	69	114	1
113	71	115	1
114	73	116	1
115	75	117	1
116	77	118	1
117	79	119	1
118	120	121	1
119	121	122	1
120	122	123	1
121	123	124	1
122	124	125	1
123	125	126	1
124	126	127	1
125	127	128	1
126	128	129	1
127	129	130	1
128	130	131	1
129	131	132	1
130	132	133	1
131	133	134	1
132	134	135	1
133	135	136	1
134	136	137	1
135	137	138	1
136	138	139	1
137	139	140	1
138	140	141	1
139	141	142	1
140	142	143	1
141	143	144	1
142	144	145	1
143	145	146	1
144	146	147	1
145	147	148	1
146	148	149	1
147	149	150	1
148	150	151	1
149	151	152	1
150	152	153	1
151	153	154	1
152	154	155	1
153	155	156	1
154	157	158	1
155	158	159	1
156	159	160	1
157	160	161	1
158	161	162	1
159	162	163	1
160	163	164	1
161	164	165	1
162	165	166	1
163	166	167	1
164	167	168	1
165	168	169	1
166	169	170	1
167	170	171	1
168	171	172	1
169	172	173	1
170	173	174	1
171	174	175	1
172	175	176	1
173	176	177	1
174	177	178	1
175	178	179	1
176	179	180	1
177	180	181	1
178	181	182	1
179	182	183	1
180	183	184	1
181	184	185	1
182	185	186	1
183	186	187	1
184	187	188	1
185	188	189	1
186	189	190	1
187	190	191	1
188	191	192	1
189	192	193	1
190	156	157	1
191	193	194	1
192	195	196	2
193	194	195	1
194	120	197	1
195	122	198	1
196	124	199	1
197	126	200	1
198	128	201	1
199	130	202	1
200	132	203	1
201	134	204	1
202	136	205	1
203	138	206	1
204	140	207	1
205	142	208	1
206	144	209	1
207	146	210	1
208	150	211	1
209	148	212	1
210	152	213	1
211	154	214	1
212	156	215	1
213	158	216	1
214	160	217	1
215	162	218	1
216	164	219	1
217	166	220	1
218	168	221	1
219	170	222	1
220	172	223	1
221	174	224	1
222	176	225	1
223	178	226	1
224	180	227	1
225	182	228	1
226	184	229	1
227	186	230	1
228	188	231	1
229	190	232	1
230	192	233	1
231	194	234	1
232	80	120	1
233	79	80	1
234	1	235	1
235	1	236	1
236	2	237	1
237	3	238	1
238	4	239	1
239	4	240	1
240	5	241	1
241	6	242	1
242	6	243	1
243	7	244	1
244	8	245	1
245	8	246	1
246	9	247	1
247	10	248	1
248	10	249	1
249	11	250	1
250	12	251	1
251	12	252	1
252	13	253	1
253	14	254	1
254	14	255	1
255	15	256	1
256	16	257	1
257	16	258	1
258	17	259	1
259	18	260	1
260	18	261	1
261	19	262	1
262	20	263	1
263	20	264	1
264	21	265	1
265	22	266	1
266	22	267	1
267	23	268	1
268	24	269	1
269	24	270	1
270	25	271	1
271	26	272	1
272	26	273	1
273	27	274	1
274	28	275	1
275	28	276	1
276	29	277	1
277	30	278	1
278	30	279	1
279	31	280	1
280	32	281	1
281	32	282	1
282	33	283	1
283	34	284	1
284	34	285	1
285	35	286	1
286	36	287	1
287	36	288	1
288	37	289	1
289	38	290	1
290	38	291	1
291	39	292	1
292	40	293	1
293	40	294	1
294	41	295	1
295	42	296	1
296	42	297	1
297	43	298	1
298	44	299	1
299	44	300	1
300	45	301	1
301	46	302	1
302	46	303	1
303	47	304	1
304	48	305	1
305	48	306	1
306	49	307	1
307	50	308	1
308	50	309	1
309	51	310	1
310	52	311	1
311	52	312	1
312	53	313	1
313	54	314	1
314	54	315	1
315	55	316	1
316	56	317	1
317	56	318	1
318	57	319	1
319	58	320	1
320	58	321	1
321	59	322	1
322	60	323	1
323	60	324	1
324	61	325	1
325	62	326	1
326	62	327	1
327	63	328	1
328	64	329	1
329	64	330	1
330	65	331	1
331	66	332	1
332	66	333	1
333	67	334	1
334	68	335	1
335	68	336	1
336	69	337	1
337	70	338	1
338	70	339	1
339	71	340	1
340	72	341	1
341	72	342	1
342	73	343	1
343	74	344	1
344	74	345	1
345	75	346	1
346	76	347	1
347	76	348	1
348	77	349	1
349	78	350	1
350	78	351	1
351	79	352	1
352	80	353	1
353	80	354	1
354	81	355	1
355	82	356	1
356	83	357	1
357	84	358	1
358	85	359	1
359	86	360	1
360	87	361	1
361	88	362	1
362	89	363	1
363	90	364	1
364	91	365	1
365	92	366	1
366	93	367	1
367	94	368	1
368	95	369	1
369	96	370	1
370	97	371	1
371	98	372	1
372	99	373	1
373	100	374	1
374	101	375	1
375	102	376	1
376	103	377	1
377	104	378	1
378	105	379	1
379	106	380	1
380	107	381	1
381	108	382	1
382	109	383	1
383	110	384	1
384	111	385	1
385	112	386	1
386	113	387	1
387	114	388	1
388	115	389	1
389	116	390	1
390	117	391	1
391	118	392	1
392	119	393	1
393	120	394	1
394	121	395	1
395	121	396	1
396	122	397	1
397	123	398	1
398	123	399	1
399	124	400	1
400	125	401	1
401	125	402	1
402	126	403	1
403	127	404	1
404	127	405	1
405	128	406	1
406	129	407	1
407	129	408	1
408	130	409	1
409	131	410	1
410	131	411	1
411	132	412	1
412	133	413	1
413	133	414	1
414	134	415	1
415	135	416	1
416	135	417	1
417	136	418	1
418	137	419	1
419	137	420	1
420	138	421	1
421	139	422	1
422	139	423	1
423	140	424	1
424	141	425	1
425	141	426	1
426	142	427	1
427	143	428	1
428	143	429	1
429	144	430	1
430	145	431	1
431	145	432	1
432	146	433	1
433	147	434	1
434	147	435	1
435	148	436	1
436	149	437	1
437	149	438	1
438	150	439	1
439	151	440	1
440	151	441	1
441	152	442	1
442	153	443	1
443	153	444	1
444	154	445	1
445	155	446	1
446	155	447	1
447	156	448	1
448	157	449	1
449	157	450	1
450	158	451	1
451	159	452	1
452	159	453	1
453	160	454	1
454	161	455	1
455	161	456	1
456	162	457	1
457	163	458	1
458	163	459	1
459	164	460	1
460	165	461	1
461	165	462	1
462	166	463	1
463	167	464	1
464	167	465	1
465	168	466	1
466	169	467	1
467	169	468	1
468	170	469	1
469	171	470	1
470	171	471	1
471	172	472	1
472	173	473	1
473	173	474	1
474	174	475	1
475	175	476	1
476	175	477	1
477	176	478	1
478	177	479	1
479	177	480	1
480	178	481	1
481	179	482	1
482	179	483	1
483	180	484	1
484	181	485	1
485	181	486	1
486	182	487	1
487	183	488	1
488	183	489	1
489	184	490	1
490	185	491	1
491	185	492	1
492	186	493	1
493	187	494	1
494	187	495	1
495	188	496	1
496	189	497	1
497	189	498	1
498	190	499	1
499	191	500	1
500	191	501	1
501	192	502	1
502	193	503	1
503	193	504	1
504	194	505	1
505	195	506	1
506	196	507	1
507	196	508	1
508	197	509	1
509	198	510	1
510	199	511	1
511	200	512	1
512	201	513	1
513	202	514	1
514	203	515	1
515	204	516	1
516	205	517	1
517	206	518	1
518	207	519	1
519	208	520	1
520	209	521	1
521	210	522	1
522	211	523	1
523	212	524	1
524	213	525	1
525	214	526	1
526	215	527	1
527	216	528	1
528	217	529	1
529	218	530	1
530	219	531	1
531	220	532	1
532	221	533	1
533	222	534	1
534	223	535	1
535	224	536	1
536	225	537	1
537	226	538	1
538	227	539	1
539	228	540	1
540	229	541	1
541	230	542	1
542	231	543	1
543	232	544	1
544	233	545	1
545	234	546	1
@<TRIPOS>SUBSTRUCTURE
1	noname	1
