@<TRIPOS>MOLECULE

32 34 1
SMALL
USER_CHARGES
@<TRIPOS>ATOM
1	C1     3.8466    -1.5617     2.9996	C.2	1	noname	0.0614
2	C2     4.7497    -1.6360     1.9030	C.2	1	noname	0.0287
3	C3     4.3156    -1.2545     4.2909	C.2	1	noname	0.0030
4	C4     6.1314    -1.4042     2.1408	C.2	1	noname	0.0581
5	C5     5.6852    -1.0231     4.5114	C.2	1	noname	0.0360
6	C6     6.5899    -1.1033     3.4385	C.2	1	noname	0.0003
7	C7     1.9634    -2.0633     1.5819	C.2	1	noname	0.0333
8	C8     2.8204    -2.1587     0.4645	C.2	1	noname	0.0690
9	O1     2.5109    -1.7826     2.8025	O.3	1	noname	-0.1847
10	C9     4.2040    -1.9406     0.6307	C.2	1	noname	0.1157
11	O2     4.9354    -2.0260    -0.3840	O.2	1	noname	-0.2770
12	O3     6.1340    -0.7201     5.7530	O.3	1	noname	-0.2804
13	C10     0.5642    -2.2512     1.4736	C.2	1	noname	-0.0293
14	C11    -0.2104    -1.4353     0.6138	C.2	1	noname	0.0081
15	C12    -0.0795    -3.2774     2.2014	C.2	1	noname	-0.0310
16	C13    -1.5970    -1.6440     0.4781	C.2	1	noname	0.0323
17	C14    -1.4637    -3.4943     2.0571	C.2	1	noname	-0.0140
18	C15    -2.2253    -2.6771     1.2006	C.2	1	noname	0.0341
19	O4    -2.3173    -0.8469    -0.3477	O.3	1	noname	-0.2753
20	O5    -3.5579    -2.8893     1.0783	O.3	1	noname	-0.2748
21	O6     7.0581    -1.4605     1.1527	O.3	1	noname	-0.2746
22	O7     2.3206    -2.4683    -0.7611	O.3	1	noname	-0.2594
23	H1     3.6581    -1.2004     5.0704	H	1	noname	0.0678
24	H2     7.5866    -0.9421     3.6063	H	1	noname	0.0677
25	H3     6.3931    -1.5819     6.1409	H	1	noname	0.2181
26	H4     0.2323    -0.6810     0.0790	H	1	noname	0.0658
27	H5     0.4574    -3.8855     2.8257	H	1	noname	0.0630
28	H6    -1.9143    -4.2526     2.5722	H	1	noname	0.0651
29	H7    -2.2901    -1.2997    -1.2170	H	1	noname	0.2183
30	H8    -3.6418    -3.5090     0.3243	H	1	noname	0.2183
31	H9     7.2303    -2.4181     1.0361	H	1	noname	0.2182
32	H10     2.1232    -1.6009    -1.1712	H	1	noname	0.2184
@<TRIPOS>BOND
1	3	1	2
2	4	2	2
3	5	3	1
4	6	4	1
5	6	5	2
6	8	7	2
7	1	9	1
8	2	1	1
9	9	7	1
10	2	10	1
11	8	10	1
12	10	11	2
13	5	12	1
14	14	13	1
15	15	13	2
16	16	14	2
17	17	15	1
18	18	16	1
19	18	17	2
20	7	13	1
21	16	19	1
22	18	20	1
23	4	21	1
24	8	22	1
25	3	23	1
26	6	24	1
27	12	25	1
28	14	26	1
29	15	27	1
30	17	28	1
31	19	29	1
32	20	30	1
33	21	31	1
34	22	32	1
@<TRIPOS>SUBSTRUCTURE
1	noname	1
