@<TRIPOS>MOLECULE

263 278 1
SMALL
USER_CHARGES
@<TRIPOS>ATOM
1	C1    -7.0661   -10.6598     0.0000	C.2	1	noname	-0.0961
2	C2    -6.7509    -9.1524     0.0000	C.2	1	noname	-0.0905
3	C3    -5.2878    -8.6718     0.0000	C.3	1	noname	0.0021
4	C4    -4.9725    -7.1644     0.0000	C.3	1	noname	-0.0359
5	C5    -6.1203    -6.1376     0.0000	C.3	1	noname	0.0137
6	C6    -5.8050    -4.6303     0.0000	C.3	1	noname	-0.0394
7	C7    -6.9528    -3.6035     0.0000	C.3	1	noname	0.0135
8	C8    -6.1871    -2.2673     0.0000	C.3	1	noname	-0.0394
9	C9    -6.9615    -0.9362     0.0000	C.3	1	noname	0.0135
10	C10    -5.8204     0.0980     0.0000	C.3	1	noname	-0.0394
11	C11    -6.1455     1.6033     0.0000	C.3	1	noname	0.0135
12	C12    -4.7406     2.2342     0.0000	C.3	1	noname	-0.0394
13	C13    -4.5846     3.7663     0.0000	C.3	1	noname	0.0135
14	C14    -3.0536     3.9323     0.0000	C.3	1	noname	-0.0394
15	C15    -2.4318     5.3412     0.0000	C.3	1	noname	0.0135
16	C16    -0.9244     5.0259     0.0000	C.3	1	noname	-0.0394
17	C17     0.1023     6.1737     0.0000	C.3	1	noname	0.0135
18	C18     1.4385     5.4080     0.0000	C.3	1	noname	-0.0394
19	C19     2.7696     6.1823     0.0000	C.3	1	noname	0.0135
20	C20     3.8038     5.0413     0.0000	C.3	1	noname	-0.0394
21	C21     5.3091     5.3663     0.0000	C.3	1	noname	0.0135
22	C22     5.9401     3.9615     0.0000	C.3	1	noname	-0.0394
23	C23     7.4721     3.8055     0.0000	C.3	1	noname	0.0135
24	C24     7.6381     2.2745     0.0000	C.3	1	noname	-0.0394
25	C25     9.0470     1.6527     0.0000	C.3	1	noname	0.0135
26	C26     8.7317     0.1453     0.0000	C.3	1	noname	-0.0394
27	C27     9.8795    -0.8814     0.0000	C.3	1	noname	0.0135
28	C28     9.1138    -2.2176     0.0000	C.3	1	noname	-0.0394
29	C29     9.8882    -3.5488     0.0000	C.3	1	noname	0.0135
30	C30     8.7471    -4.5829     0.0000	C.3	1	noname	-0.0394
31	C31     9.0722    -6.0882     0.0000	C.3	1	noname	0.0137
32	C32     7.6673    -6.7192     0.0000	C.3	1	noname	-0.0359
33	C33     7.5113    -8.2513     0.0000	C.3	1	noname	0.0021
34	C34     8.7602    -9.1524     0.0000	C.2	1	noname	-0.0905
35	C35     8.6042   -10.6845     0.0000	C.2	1	noname	-0.0961
36	C36    10.3210    -6.9894     0.0000	C.2	1	noname	-0.0561
37	C37    11.4195    -0.8764     0.0000	C.2	1	noname	-0.0562
38	C38     8.7151     4.7148     0.0000	C.2	1	noname	-0.0562
39	C39     3.2408     7.6485     0.0000	C.2	1	noname	-0.0562
40	C40    -2.9125     6.8042     0.0000	C.2	1	noname	-0.0562
41	C41    -7.3943     2.5044     0.0000	C.2	1	noname	-0.0562
42	C42    -8.4928    -3.6085     0.0000	C.2	1	noname	-0.0562
43	C43    -4.1400    -9.6985     0.0000	C.2	1	noname	-0.0519
44	C44    -1.8444   -11.7520     0.0000	C.2	1	noname	-0.0615
45	C45    -1.5291   -10.2446     0.0000	C.2	1	noname	-0.0600
46	C46    -2.6769    -9.2178     0.0000	C.2	1	noname	-0.0552
47	C47    -4.4553   -11.2059     0.0000	C.2	1	noname	-0.0552
48	C48    -3.3075   -12.2326     0.0000	C.2	1	noname	-0.0600
49	C49    -7.5834    -6.6183     0.0000	C.2	1	noname	-0.0561
50	C50    -8.4276    -0.4651     0.0000	C.2	1	noname	-0.0562
51	C51    -5.4939     5.0093     0.0000	C.2	1	noname	-0.0562
52	C52     0.0973     7.7137     0.0000	C.2	1	noname	-0.0562
53	C53     6.2103     6.6152     0.0000	C.2	1	noname	-0.0562
54	C54    10.5101     2.1333     0.0000	C.2	1	noname	-0.0562
55	C55    11.3543    -4.0199     0.0000	C.2	1	noname	-0.0562
56	C56     6.1065    -8.8822     0.0000	C.2	1	noname	-0.0519
57	C57    -7.8986    -8.1257     0.0000	C.2	1	noname	-0.0632
58	C58    -9.3617    -8.6063     0.0000	C.2	1	noname	-0.0629
59	C59   -10.5095    -7.5796     0.0000	C.2	1	noname	-0.0684
60	C60   -10.1942    -6.0722     0.0000	C.2	1	noname	-0.0629
61	C61    -8.7311    -5.5915     0.0000	C.2	1	noname	-0.0632
62	C62   -11.5728    -3.6185     0.0000	C.2	1	noname	-0.0684
63	C63   -10.7984    -4.9497     0.0000	C.2	1	noname	-0.0629
64	C64    -9.2584    -4.9447     0.0000	C.2	1	noname	-0.0632
65	C65    -9.2671    -2.2774     0.0000	C.2	1	noname	-0.0632
66	C66   -10.8071    -2.2824     0.0000	C.2	1	noname	-0.0629
67	C67    -9.5687    -1.4992     0.0000	C.2	1	noname	-0.0632
68	C68   -11.0349    -1.0281     0.0000	C.2	1	noname	-0.0629
69	C69   -11.3600     0.4772     0.0000	C.2	1	noname	-0.0684
70	C70   -10.2189     1.5114     0.0000	C.2	1	noname	-0.0629
71	C71    -8.7527     1.0402     0.0000	C.2	1	noname	-0.0632
72	C72    -9.8919     4.3067     0.0000	C.2	1	noname	-0.0684
73	C73   -10.0479     2.7746     0.0000	C.2	1	noname	-0.0629
74	C74    -8.7991     1.8735     0.0000	C.2	1	noname	-0.0632
75	C75    -7.2383     4.0365     0.0000	C.2	1	noname	-0.0632
76	C76    -8.4871     4.9376     0.0000	C.2	1	noname	-0.0629
77	C77    -7.0249     4.8433     0.0000	C.2	1	noname	-0.0632
78	C78    -7.9341     6.0862     0.0000	C.2	1	noname	-0.0629
79	C79    -7.3123     7.4951     0.0000	C.2	1	noname	-0.0684
80	C80    -5.7813     7.6611     0.0000	C.2	1	noname	-0.0629
81	C81    -4.8721     6.4181     0.0000	C.2	1	noname	-0.0632
82	C82    -3.8738     9.7304     0.0000	C.2	1	noname	-0.0684
83	C83    -4.9005     8.5826     0.0000	C.2	1	noname	-0.0629
84	C84    -4.4198     7.1195     0.0000	C.2	1	noname	-0.0632
85	C85    -1.8857     7.9520     0.0000	C.2	1	noname	-0.0632
86	C86    -2.3664     9.4151     0.0000	C.2	1	noname	-0.0629
87	C87    -1.2389     8.4793     0.0000	C.2	1	noname	-0.0632
88	C88    -1.2439    10.0193     0.0000	C.2	1	noname	-0.0629
89	C89     0.0873    10.7936     0.0000	C.2	1	noname	-0.0684
90	C90     1.4235    10.0280     0.0000	C.2	1	noname	-0.0629
91	C91     1.4285     8.4880     0.0000	C.2	1	noname	-0.0632
92	C92     4.1830    10.5808     0.0000	C.2	1	noname	-0.0684
93	C93     2.6777    10.2558     0.0000	C.2	1	noname	-0.0629
94	C94     2.2066     8.7896     0.0000	C.2	1	noname	-0.0632
95	C95     4.7461     7.9736     0.0000	C.2	1	noname	-0.0632
96	C96     5.2172     9.4398     0.0000	C.2	1	noname	-0.0629
97	C97     5.5793     8.0200     0.0000	C.2	1	noname	-0.0632
98	C98     6.4804     9.2688     0.0000	C.2	1	noname	-0.0629
99	C99     8.0125     9.1128     0.0000	C.2	1	noname	-0.0684
100	C100     8.6435     7.7080     0.0000	C.2	1	noname	-0.0629
101	C101     7.7423     6.4592     0.0000	C.2	1	noname	-0.0632
102	C102    11.2010     6.5332     0.0000	C.2	1	noname	-0.0684
103	C103     9.7921     7.1550     0.0000	C.2	1	noname	-0.0629
104	C104     8.5491     6.2458     0.0000	C.2	1	noname	-0.0632
105	C105    10.1240     4.0930     0.0000	C.2	1	noname	-0.0632
106	C106    11.3669     5.0022     0.0000	C.2	1	noname	-0.0629
107	C107    10.8253     3.6407     0.0000	C.2	1	noname	-0.0632
108	C108    12.2884     4.1214     0.0000	C.2	1	noname	-0.0629
109	C109    13.4362     3.0946     0.0000	C.2	1	noname	-0.0684
110	C110    13.1209     1.5873     0.0000	C.2	1	noname	-0.0629
111	C111    11.6578     1.1066     0.0000	C.2	1	noname	-0.0632
112	C112    14.4995    -0.8664     0.0000	C.2	1	noname	-0.0684
113	C113    13.7251     0.4648     0.0000	C.2	1	noname	-0.0629
114	C114    12.1851     0.4598     0.0000	C.2	1	noname	-0.0632
115	C115    12.1938    -2.2076     0.0000	C.2	1	noname	-0.0632
116	C116    13.7338    -2.2026     0.0000	C.2	1	noname	-0.0629
117	C117    12.4954    -2.9857     0.0000	C.2	1	noname	-0.0632
118	C118    13.9616    -3.4568     0.0000	C.2	1	noname	-0.0629
119	C119    14.2867    -4.9621     0.0000	C.2	1	noname	-0.0684
120	C120    13.1456    -5.9963     0.0000	C.2	1	noname	-0.0629
121	C121    11.6794    -5.5252     0.0000	C.2	1	noname	-0.0632
122	C122    12.8186    -8.7916     0.0000	C.2	1	noname	-0.0684
123	C123    12.9746    -7.2596     0.0000	C.2	1	noname	-0.0629
124	C124    11.7258    -6.3584     0.0000	C.2	1	noname	-0.0632
125	C125    10.1650    -8.5215     0.0000	C.2	1	noname	-0.0632
126	C126    11.4138    -9.4226     0.0000	C.2	1	noname	-0.0629
127	C127     5.9505   -10.4143     0.0000	C.2	1	noname	-0.0552
128	C128     4.5457   -11.0452     0.0000	C.2	1	noname	-0.0600
129	C129     3.2969   -10.1441     0.0000	C.2	1	noname	-0.0615
130	C130     3.4529    -8.6120     0.0000	C.2	1	noname	-0.0600
131	C131     4.8577    -7.9811     0.0000	C.2	1	noname	-0.0552
132	H1    -8.5292   -11.1404     0.0000	H	1	noname	0.0534
133	H2    -5.9183   -11.6865     0.0000	H	1	noname	0.0534
134	H3    -6.4356    -7.6450     0.0000	H	1	noname	0.0576
135	H4    -3.8247    -8.1911     0.0000	H	1	noname	0.0395
136	H5    -3.6151    -6.4370     0.0000	H	1	noname	0.0282
137	H6    -4.4002    -5.7346     0.0000	H	1	noname	0.0282
138	H7    -7.2681    -5.1109     0.0000	H	1	noname	0.0352
139	H8    -4.3636    -4.0881     0.0000	H	1	noname	0.0279
140	H9    -5.5217    -3.1165     0.0000	H	1	noname	0.0279
141	H10    -7.7271    -2.2724     0.0000	H	1	noname	0.0352
142	H11    -4.6541    -2.1211     0.0000	H	1	noname	0.0279
143	H12    -5.4836    -0.8974     0.0000	H	1	noname	0.0279
144	H13    -7.2865     0.5691     0.0000	H	1	noname	0.0352
145	H14    -4.3228    -0.2609     0.0000	H	1	noname	0.0279
146	H15    -4.7192     1.1746     0.0000	H	1	noname	0.0279
147	H16    -5.9895     3.1354     0.0000	H	1	noname	0.0352
148	H17    -3.4229     1.4373     0.0000	H	1	noname	0.0279
149	H18    -3.3626     2.9216     0.0000	H	1	noname	0.0279
150	H19    -3.9628     5.1752     0.0000	H	1	noname	0.0352
151	H20    -2.0488     2.7653     0.0000	H	1	noname	0.0279
152	H21    -1.5304     4.1588     0.0000	H	1	noname	0.0279
153	H22    -1.4051     6.4890     0.0000	H	1	noname	0.0352
154	H23    -0.3285     3.6058     0.0000	H	1	noname	0.0279
155	H24     0.5943     4.7711     0.0000	H	1	noname	0.0279
156	H25     1.4335     6.9480     0.0000	H	1	noname	0.0352
157	H26     1.5661     3.8733     0.0000	H	1	noname	0.0279
158	H27     2.8041     4.6962     0.0000	H	1	noname	0.0279
159	H28     4.2749     6.5074     0.0000	H	1	noname	0.0352
160	H29     3.4510     3.5422     0.0000	H	1	noname	0.0279
161	H30     4.8827     3.9423     0.0000	H	1	noname	0.0279
162	H31     6.8412     5.2103     0.0000	H	1	noname	0.0352
163	H32     5.1413     2.6449     0.0000	H	1	noname	0.0279
164	H33     6.6265     2.5830     0.0000	H	1	noname	0.0279
165	H34     8.8810     3.1837     0.0000	H	1	noname	0.0352
166	H35     6.4716     1.2691     0.0000	H	1	noname	0.0279
167	H36     7.8650     0.7513     0.0000	H	1	noname	0.0279
168	H37    10.1948     0.6260     0.0000	H	1	noname	0.0352
169	H38     7.3116    -0.4504     0.0000	H	1	noname	0.0279
170	H39     8.4768    -1.3734     0.0000	H	1	noname	0.0279
171	H40    10.6538    -2.2126     0.0000	H	1	noname	0.0352
172	H41     7.5791    -2.3453     0.0000	H	1	noname	0.0279
173	H42     8.4021    -3.5832     0.0000	H	1	noname	0.0279
174	H43    10.2132    -5.0541     0.0000	H	1	noname	0.0352
175	H44     7.2480    -4.2301     0.0000	H	1	noname	0.0279
176	H45     7.6481    -5.6618     0.0000	H	1	noname	0.0279
177	H46     8.9162    -7.6203     0.0000	H	1	noname	0.0352
178	H47     6.3507    -5.9204     0.0000	H	1	noname	0.0282
179	H48     6.2888    -7.4056     0.0000	H	1	noname	0.0282
180	H49     7.3554    -9.7833     0.0000	H	1	noname	0.0395
181	H50    10.0090   -10.0535     0.0000	H	1	noname	0.0576
182	H51     7.7772   -11.9836     0.0000	H	1	noname	0.0534
183	H52     9.1524   -12.1236     0.0000	H	1	noname	0.0534
184	H53    -0.6966   -12.7787     0.0000	H	1	noname	0.0622
185	H54    -0.0661    -9.7639     0.0000	H	1	noname	0.0622
186	H55    -1.6502    -8.0701     0.0000	H	1	noname	0.0625
187	H56    -5.6031   -10.1791     0.0000	H	1	noname	0.0625
188	H57    -3.6228   -13.7400     0.0000	H	1	noname	0.0622
189	H58    -8.2139    -9.6330     0.0000	H	1	noname	0.0625
190	H59   -10.3884    -9.7541     0.0000	H	1	noname	0.0622
191	H60   -11.9726    -8.0602     0.0000	H	1	noname	0.0622
192	H61   -11.7183    -6.2929     0.0000	H	1	noname	0.0622
193	H62    -8.2986    -4.1136     0.0000	H	1	noname	0.0625
194	H63   -13.1128    -3.6235     0.0000	H	1	noname	0.0622
195	H64   -10.0328    -3.6135     0.0000	H	1	noname	0.0622
196	H65    -9.2634    -3.4047     0.0000	H	1	noname	0.0625
197	H66    -8.3990    -1.0054     0.0000	H	1	noname	0.0625
198	H67   -12.3248    -2.0213     0.0000	H	1	noname	0.0622
199	H68    -9.8938     0.0061     0.0000	H	1	noname	0.0625
200	H69   -12.4810    -0.4986     0.0000	H	1	noname	0.0622
201	H70   -12.3827     1.6286     0.0000	H	1	noname	0.0622
202	H71   -11.5816     2.2287     0.0000	H	1	noname	0.0622
203	H72    -7.5340     1.9817     0.0000	H	1	noname	0.0625
204	H73   -11.1407     5.2078     0.0000	H	1	noname	0.0622
205	H74    -8.6431     3.4056     0.0000	H	1	noname	0.0622
206	H75    -7.8980     3.1223     0.0000	H	1	noname	0.0625
207	H76    -5.7883     4.5553     0.0000	H	1	noname	0.0625
208	H77    -9.5615     6.0409     0.0000	H	1	noname	0.0622
209	H78    -6.4031     6.2522     0.0000	H	1	noname	0.0625
210	H79    -8.7929     7.3646     0.0000	H	1	noname	0.0622
211	H80    -7.4630     9.0278     0.0000	H	1	noname	0.0622
212	H81    -6.4622     9.0424     0.0000	H	1	noname	0.0622
213	H82    -3.3327     6.4635     0.0000	H	1	noname	0.0625
214	H83    -4.3544    11.1935     0.0000	H	1	noname	0.0622
215	H84    -3.3931     8.2673     0.0000	H	1	noname	0.0622
216	H85    -2.9568     7.6002     0.0000	H	1	noname	0.0625
217	H86    -0.4077     7.5194     0.0000	H	1	noname	0.0625
218	H87    -2.5871    10.9392     0.0000	H	1	noname	0.0622
219	H88     0.0923     9.2537     0.0000	H	1	noname	0.0625
220	H89    -1.1872    11.5583     0.0000	H	1	noname	0.0622
221	H90     0.8663    12.1221     0.0000	H	1	noname	0.0622
222	H91     1.6845    11.5457     0.0000	H	1	noname	0.0622
223	H92     2.7004     7.6199     0.0000	H	1	noname	0.0625
224	H93     4.6541    12.0470     0.0000	H	1	noname	0.0622
225	H94     3.7119     9.1147     0.0000	H	1	noname	0.0622
226	H95     3.6728     8.3185     0.0000	H	1	noname	0.0625
227	H96     5.6875     6.7549     0.0000	H	1	noname	0.0625
228	H97     5.9345    10.8025     0.0000	H	1	noname	0.0622
229	H98     7.1114     7.8640     0.0000	H	1	noname	0.0625
230	H99     7.4309    10.4805     0.0000	H	1	noname	0.0622
231	H100     9.4236     9.7296     0.0000	H	1	noname	0.0622
232	H101     9.7468     8.7824     0.0000	H	1	noname	0.0622
233	H102     8.2611     5.0092     0.0000	H	1	noname	0.0625
234	H103    12.4439     7.4425     0.0000	H	1	noname	0.0622
235	H104     9.9580     5.6240     0.0000	H	1	noname	0.0622
236	H105     9.4584     5.0029     0.0000	H	1	noname	0.0625
237	H106    10.1693     2.5536     0.0000	H	1	noname	0.0625
238	H107    12.7482     5.6831     0.0000	H	1	noname	0.0622
239	H108    11.9731     2.6140     0.0000	H	1	noname	0.0625
240	H109    13.7696     4.5430     0.0000	H	1	noname	0.0622
241	H110    14.9403     2.7643     0.0000	H	1	noname	0.0622
242	H111    14.6450     1.8080     0.0000	H	1	noname	0.0622
243	H112    11.2253    -0.3714     0.0000	H	1	noname	0.0625
244	H113    16.0395    -0.8614     0.0000	H	1	noname	0.0622
245	H114    12.9595    -0.8714     0.0000	H	1	noname	0.0622
246	H115    12.1901    -1.0802     0.0000	H	1	noname	0.0625
247	H116    11.3257    -3.4796     0.0000	H	1	noname	0.0625
248	H117    15.2515    -2.4636     0.0000	H	1	noname	0.0622
249	H118    12.8205    -4.4910     0.0000	H	1	noname	0.0625
250	H119    15.4077    -3.9863     0.0000	H	1	noname	0.0622
251	H120    15.3094    -6.1135     0.0000	H	1	noname	0.0622
252	H121    14.5083    -6.7136     0.0000	H	1	noname	0.0622
253	H122    10.4607    -6.4666     0.0000	H	1	noname	0.0625
254	H123    14.0674    -9.6928     0.0000	H	1	noname	0.0622
255	H124    11.5698    -7.8905     0.0000	H	1	noname	0.0622
256	H125    10.8247    -7.6072     0.0000	H	1	noname	0.0625
257	H126     9.5340    -7.1166     0.0000	H	1	noname	0.0625
258	H127    12.0448   -10.8274     0.0000	H	1	noname	0.0622
259	H128     6.5815   -11.8191     0.0000	H	1	noname	0.0625
260	H129     4.3897   -12.5773     0.0000	H	1	noname	0.0622
261	H130     1.8921   -10.7750     0.0000	H	1	noname	0.0622
262	H131     2.2041    -7.7109     0.0000	H	1	noname	0.0622
263	H132     4.2549    -6.5640     0.0000	H	1	noname	0.0625
@<TRIPOS>BOND
1	1	2	2
2	3	2	1
3	3	4	1
4	5	4	1
5	5	6	1
6	7	6	1
7	7	8	1
8	9	8	1
9	9	10	1
10	11	10	1
11	11	12	1
12	13	12	1
13	13	14	1
14	15	14	1
15	15	16	1
16	17	16	1
17	17	18	1
18	19	18	1
19	19	20	1
20	21	20	1
21	21	22	1
22	23	22	1
23	23	24	1
24	25	24	1
25	25	26	1
26	27	26	1
27	27	28	1
28	29	28	1
29	29	30	1
30	31	30	1
31	31	32	1
32	33	32	1
33	33	34	1
34	34	35	2
35	31	36	1
36	27	37	1
37	23	38	1
38	19	39	1
39	15	40	1
40	11	41	1
41	7	42	1
42	3	43	1
43	44	45	1
44	45	46	2
45	47	48	1
46	44	48	2
47	46	43	1
48	43	47	2
49	5	49	1
50	9	50	1
51	13	51	1
52	17	52	1
53	21	53	1
54	25	54	1
55	29	55	1
56	33	56	1
57	57	58	2
58	58	59	1
59	59	60	2
60	60	61	1
61	49	57	1
62	49	61	2
63	62	63	1
64	63	64	2
65	65	66	1
66	62	66	2
67	64	42	1
68	42	65	2
69	67	68	2
70	68	69	1
71	69	70	2
72	70	71	1
73	50	67	1
74	50	71	2
75	72	73	1
76	73	74	2
77	75	76	1
78	72	76	2
79	74	41	1
80	41	75	2
81	77	78	2
82	78	79	1
83	79	80	2
84	80	81	1
85	51	77	1
86	51	81	2
87	82	83	1
88	83	84	2
89	85	86	1
90	82	86	2
91	84	40	1
92	40	85	2
93	87	88	2
94	88	89	1
95	89	90	2
96	90	91	1
97	52	87	1
98	52	91	2
99	92	93	1
100	93	94	2
101	95	96	1
102	92	96	2
103	94	39	1
104	39	95	2
105	97	98	2
106	98	99	1
107	99	100	2
108	100	101	1
109	53	97	1
110	53	101	2
111	102	103	1
112	103	104	2
113	105	106	1
114	102	106	2
115	104	38	1
116	38	105	2
117	107	108	2
118	108	109	1
119	109	110	2
120	110	111	1
121	54	107	1
122	54	111	2
123	112	113	1
124	113	114	2
125	115	116	1
126	112	116	2
127	114	37	1
128	37	115	2
129	117	118	2
130	118	119	1
131	119	120	2
132	120	121	1
133	55	117	1
134	55	121	2
135	122	123	1
136	123	124	2
137	125	126	1
138	122	126	2
139	124	36	1
140	36	125	2
141	127	128	2
142	128	129	1
143	129	130	2
144	130	131	1
145	56	127	1
146	56	131	2
147	1	132	1
148	1	133	1
149	2	134	1
150	3	135	1
151	4	136	1
152	4	137	1
153	5	138	1
154	6	139	1
155	6	140	1
156	7	141	1
157	8	142	1
158	8	143	1
159	9	144	1
160	10	145	1
161	10	146	1
162	11	147	1
163	12	148	1
164	12	149	1
165	13	150	1
166	14	151	1
167	14	152	1
168	15	153	1
169	16	154	1
170	16	155	1
171	17	156	1
172	18	157	1
173	18	158	1
174	19	159	1
175	20	160	1
176	20	161	1
177	21	162	1
178	22	163	1
179	22	164	1
180	23	165	1
181	24	166	1
182	24	167	1
183	25	168	1
184	26	169	1
185	26	170	1
186	27	171	1
187	28	172	1
188	28	173	1
189	29	174	1
190	30	175	1
191	30	176	1
192	31	177	1
193	32	178	1
194	32	179	1
195	33	180	1
196	34	181	1
197	35	182	1
198	35	183	1
199	44	184	1
200	45	185	1
201	46	186	1
202	47	187	1
203	48	188	1
204	57	189	1
205	58	190	1
206	59	191	1
207	60	192	1
208	61	193	1
209	62	194	1
210	63	195	1
211	64	196	1
212	65	197	1
213	66	198	1
214	67	199	1
215	68	200	1
216	69	201	1
217	70	202	1
218	71	203	1
219	72	204	1
220	73	205	1
221	74	206	1
222	75	207	1
223	76	208	1
224	77	209	1
225	78	210	1
226	79	211	1
227	80	212	1
228	81	213	1
229	82	214	1
230	83	215	1
231	84	216	1
232	85	217	1
233	86	218	1
234	87	219	1
235	88	220	1
236	89	221	1
237	90	222	1
238	91	223	1
239	92	224	1
240	93	225	1
241	94	226	1
242	95	227	1
243	96	228	1
244	97	229	1
245	98	230	1
246	99	231	1
247	100	232	1
248	101	233	1
249	102	234	1
250	103	235	1
251	104	236	1
252	105	237	1
253	106	238	1
254	107	239	1
255	108	240	1
256	109	241	1
257	110	242	1
258	111	243	1
259	112	244	1
260	113	245	1
261	114	246	1
262	115	247	1
263	116	248	1
264	117	249	1
265	118	250	1
266	119	251	1
267	120	252	1
268	121	253	1
269	122	254	1
270	123	255	1
271	124	256	1
272	125	257	1
273	126	258	1
274	127	259	1
275	128	260	1
276	129	261	1
277	130	262	1
278	131	263	1
@<TRIPOS>SUBSTRUCTURE
1	noname	1
